/*--------------------------------*- C++ -*----------------------------------*\
| =========                 |                                                 |
| \\      /  F ield         | OpenFOAM: The Open Source CFD Toolbox           |
|  \\    /   O peration     | Version:  1.7.1                                 |
|   \\  /    A nd           | Web:      www.OpenFOAM.com                      |
|    \\/     M anipulation  |                                                 |
\*---------------------------------------------------------------------------*/
FoamFile
{
   version     2.0;
   format      ascii;
   class       dictionary;
   location    "constant";
   object      transportProperties;
}
// * * * * * * * * * * * * * * * * * * * * * * * * * * * * * * * * * * * * * //

solveTD		no;

scalingFactor 0.5;

temp   temp [0 0 0 1 0 0 0] 285.85;

Rh // list of rainfall intensities [mm/h], for which gcr will be written
(
    0.1
    1.0
    2.5
    5.0
    10.0
    30.0
);

phases // raindrop diameters [m]
(
    0.0003
    0.0004
    0.0005
    0.0006
    0.0007
    0.0008
    0.0009
    0.001 
    0.0012
    0.0014
    0.0016
    0.0018
    0.002 
    0.003 
    0.004 
    0.005 
    0.006 
);

// * * * * * * * * * * * * * * * * * * * * * * * * * * * * * * * * * * * * * //
