/*--------------------------------*- C++ -*----------------------------------*\
| =========                 |                                                 |
| \\      /  F ield         | OpenFOAM: The Open Source CFD Toolbox           |
|  \\    /   O peration     | Version:  1.7.1                                 |
|   \\  /    A nd           | Web:      www.OpenFOAM.com                      |
|    \\/     M anipulation  |                                                 |
\*---------------------------------------------------------------------------*/
FoamFile
{
   version     2.0;
   format      ascii;
   class       dictionary;
   object      blockMeshDict;
}
// * * * * * * * * * * * * * * * * * * * * * * * * * * * * * * * * * * * * * //

convertToMeters 1;

vertices
(
  (0 0 0)
  (50 0 0)
  (60 0 0)
  (210 0 0)
  (0 10 0)
  (50 10 0)
  (60 10 0)
  (210 10 0)
  (0 60 0)
  (50 60 0)
  (60 60 0)
  (210 60 0)
  (0 0 50)
  (50 0 50)
  (60 0 50)
  (210 0 50)
  (0 10 50)
  (50 10 50)
  (60 10 50)
  (210 10 50)
  (0 60 50)
  (50 60 50)
  (60 60 50)
  (210 60 50)
  (0 0 60)
  (50 0 60)
  (60 0 60)
  (210 0 60)
  (0 10 60)
  (50 10 60)
  (60 10 60)
  (210 10 60)
  (0 60 60)
  (50 60 60)
  (60 60 60)
  (210 60 60)
  (0 0 110)
  (50 0 110)
  (60 0 110)
  (210 0 110)
  (0 10 110)
  (50 10 110)
  (60 10 110)
  (210 10 110)
  (0 60 110)
  (50 60 110)
  (60 60 110)
  (210 60 110)
);
 
blocks
(
  hex (0 1 5 4 12 13 17 16) (30 30 30) simpleGrading (1.45489898293587E-02 ( (0.5 0.5 7.748574254) (0.5 0.5 0.129056000138835) ) 1.45489898293587E-02) 
  hex (1 2 6 5 13 14 18 17) (30 30 30) simpleGrading (( (0.5 0.5 7.748574254) (0.5 0.5 0.129056000138835) ) ( (0.5 0.5 7.748574254) (0.5 0.5 0.129056000138835) ) 1.45489898293587E-02) 
  hex (2 3 7 6 14 15 19 18) (40 30 30) simpleGrading (189.6297428 ( (0.5 0.5 7.748574254) (0.5 0.5 0.129056000138835) ) 1.45489898293587E-02) 
  hex (4 5 9 8 16 17 21 20) (30 30 30) simpleGrading (1.45489898293587E-02 68.73329432 1.45489898293587E-02) 
  hex (5 6 10 9 17 18 22 21) (30 30 30) simpleGrading (( (0.5 0.5 7.748574254) (0.5 0.5 0.129056000138835) ) 68.73329432 1.45489898293587E-02) 
  hex (6 7 11 10 18 19 23 22) (40 30 30) simpleGrading (189.6297428 68.73329432 1.45489898293587E-02) 
  hex (12 13 17 16 24 25 29 28) (30 30 30) simpleGrading (1.45489898293587E-02 ( (0.5 0.5 7.748574254) (0.5 0.5 0.129056000138835) ) ( (0.5 0.5 7.748574254) (0.5 0.5 0.129056000138835) )) 
  hex (14 15 19 18 26 27 31 30) (40 30 30) simpleGrading (189.6297428 ( (0.5 0.5 7.748574254) (0.5 0.5 0.129056000138835) ) ( (0.5 0.5 7.748574254) (0.5 0.5 0.129056000138835) )) 
  hex (16 17 21 20 28 29 33 32) (30 30 30) simpleGrading (1.45489898293587E-02 68.73329432 ( (0.5 0.5 7.748574254) (0.5 0.5 0.129056000138835) )) 
  hex (17 18 22 21 29 30 34 33) (30 30 30) simpleGrading (( (0.5 0.5 7.748574254) (0.5 0.5 0.129056000138835) ) 68.73329432 ( (0.5 0.5 7.748574254) (0.5 0.5 0.129056000138835) )) 
  hex (18 19 23 22 30 31 35 34) (40 30 30) simpleGrading (189.6297428 68.73329432 ( (0.5 0.5 7.748574254) (0.5 0.5 0.129056000138835) )) 
  hex (24 25 29 28 36 37 41 40) (30 30 30) simpleGrading (1.45489898293587E-02 ( (0.5 0.5 7.748574254) (0.5 0.5 0.129056000138835) ) 68.73329432) 
  hex (25 26 30 29 37 38 42 41) (30 30 30) simpleGrading (( (0.5 0.5 7.748574254) (0.5 0.5 0.129056000138835) ) ( (0.5 0.5 7.748574254) (0.5 0.5 0.129056000138835) ) 68.73329432) 
  hex (26 27 31 30 38 39 43 42) (40 30 30) simpleGrading (189.6297428 ( (0.5 0.5 7.748574254) (0.5 0.5 0.129056000138835) ) 68.73329432) 
  hex (28 29 33 32 40 41 45 44) (30 30 30) simpleGrading (1.45489898293587E-02 68.73329432 68.73329432) 
  hex (29 30 34 33 41 42 46 45) (30 30 30) simpleGrading (( (0.5 0.5 7.748574254) (0.5 0.5 0.129056000138835) ) 68.73329432 68.73329432) 
  hex (30 31 35 34 42 43 47 46) (40 30 30) simpleGrading (189.6297428 68.73329432 68.73329432) 
);
 
edges
(
);
 
boundary
(
    inlet
    {
        type patch;
        faces
        (
          (0 12 16 4)
          (4 16 20 8)
          (12 24 28 16)
          (16 28 32 20)
          (24 36 40 28)
          (28 40 44 32)
        );
    }

    outlet
    {
        type patch;
        faces
        (
          (3 15 19 7)
          (7 19 23 11)
          (15 27 31 19)
          (19 31 35 23)
          (27 39 43 31)
          (31 43 47 35)
        );
    }

    top
    {
        type patch;
        faces
        (
          (8 9 21 20)
          (9 10 22 21)
          (10 11 23 22)
          (20 21 33 32)
          (21 22 34 33)
          (22 23 35 34)
          (32 33 45 44)
          (33 34 46 45)
          (34 35 47 46)
        );
    }

    ground
    {
        type wall;
        faces
        (
          (0 1 13 12)
          (1 2 14 13)
          (2 3 15 14)
          (12 13 25 24)
          (14 15 27 26)
          (24 25 37 36)
          (25 26 38 37)
          (26 27 39 38)
        );
    }

    sides
    {
        type patch;
        faces
        (
          (0 1 5 4)
          (1 2 6 5)
          (2 3 7 6)
          (4 5 9 8)
          (5 6 10 9)
          (6 7 11 10)
          (36 37 41 40)
          (37 38 42 41)
          (38 39 43 42)
          (40 41 45 44)
          (41 42 46 45)
          (42 43 47 46)
        );
    }

    cube
    {
        type wall;
        faces
        (
            (13 14 18 17)
            (25 26 30 29)
            (13 17 29 25)
            (14 18 30 26)
            (17 18 30 29)
        );
    }
  
);

// ************************************************************************* //
